Version 4
SHEET 1 1460 1056
WIRE 592 -704 400 -704
WIRE 896 -704 768 -704
WIRE -176 -688 -368 -688
WIRE 128 -688 0 -688
WIRE 592 -688 592 -704
WIRE 688 -688 592 -688
WIRE -176 -608 -176 -688
WIRE -96 -608 -176 -608
WIRE 592 -592 592 -608
WIRE 672 -592 592 -592
WIRE 768 -592 768 -704
WIRE -176 -576 -176 -608
WIRE 0 -576 0 -688
WIRE 592 -544 576 -544
WIRE 688 -544 688 -688
WIRE 688 -544 656 -544
WIRE 704 -544 688 -544
WIRE 784 -544 768 -544
WIRE -176 -528 -192 -528
WIRE -96 -528 -96 -608
WIRE -96 -528 -112 -528
WIRE -64 -528 -96 -528
WIRE 16 -528 0 -528
WIRE 576 -496 576 -544
WIRE 592 -496 576 -496
WIRE 784 -496 784 -544
WIRE 784 -496 768 -496
WIRE -192 -480 -192 -528
WIRE -176 -480 -192 -480
WIRE 16 -480 16 -528
WIRE 16 -480 0 -480
WIRE 400 -480 400 -704
WIRE 896 -480 896 -704
WIRE -368 -464 -368 -688
WIRE 128 -464 128 -688
WIRE 592 -432 592 -496
WIRE 768 -432 768 -496
WIRE -176 -416 -176 -480
WIRE 0 -416 0 -480
WIRE 960 -416 944 -416
WIRE 592 -384 576 -384
WIRE 672 -384 672 -592
WIRE 672 -384 656 -384
WIRE 704 -384 672 -384
WIRE 784 -384 768 -384
WIRE -176 -368 -192 -368
WIRE -96 -368 -96 -528
WIRE -96 -368 -112 -368
WIRE -64 -368 -96 -368
WIRE 16 -368 0 -368
WIRE 896 -368 896 -400
WIRE 960 -368 960 -416
WIRE 960 -368 896 -368
WIRE 576 -336 576 -384
WIRE 592 -336 576 -336
WIRE 784 -336 784 -384
WIRE 784 -336 768 -336
WIRE -192 -320 -192 -368
WIRE -176 -320 -192 -320
WIRE 16 -320 16 -368
WIRE 16 -320 0 -320
WIRE 400 -272 400 -400
WIRE 592 -272 592 -336
WIRE 592 -272 400 -272
WIRE 768 -272 768 -336
WIRE 768 -272 592 -272
WIRE 896 -272 896 -368
WIRE 896 -272 768 -272
WIRE 992 -272 896 -272
WIRE -368 -256 -368 -384
WIRE -176 -256 -176 -320
WIRE -176 -256 -368 -256
WIRE 0 -256 0 -320
WIRE 0 -256 -176 -256
WIRE 128 -256 128 -384
WIRE 128 -256 0 -256
WIRE 224 -256 128 -256
WIRE -64 272 -256 272
WIRE 240 272 112 272
WIRE -64 352 -64 272
WIRE 16 352 -64 352
WIRE -64 384 -64 352
WIRE 112 384 112 272
WIRE -64 432 -80 432
WIRE 16 432 16 352
WIRE 16 432 0 432
WIRE 48 432 16 432
WIRE 128 432 112 432
WIRE -80 480 -80 432
WIRE -64 480 -80 480
WIRE 128 480 128 432
WIRE 128 480 112 480
WIRE -256 496 -256 272
WIRE 240 496 240 272
WIRE 304 560 288 560
WIRE 240 608 240 576
WIRE 304 608 304 560
WIRE 304 608 240 608
WIRE -256 704 -256 576
WIRE -64 704 -64 480
WIRE -64 704 -256 704
WIRE 112 704 112 480
WIRE 112 704 -64 704
WIRE 240 704 240 608
WIRE 240 704 112 704
WIRE 336 704 240 704
FLAG 128 -688 V1
FLAG 224 -256 0
FLAG 992 -272 0
FLAG 944 -464 V1
FLAG 336 704 0
FLAG 288 512 V1
SYMBOL current -368 -384 R180
WINDOW 0 24 80 Left 2
WINDOW 3 24 0 Left 2
SYMATTR InstName I1
SYMATTR Value 5µ
SYMBOL voltage 128 -480 R0
WINDOW 123 24 124 Left 2
WINDOW 39 0 0 Left 0
WINDOW 3 24 44 Left 2
SYMATTR Value2 AC 1
SYMATTR Value 0.416
SYMATTR InstName V1
SYMBOL current 400 -400 R180
WINDOW 0 24 80 Left 2
WINDOW 3 24 0 Left 2
SYMATTR InstName I2
SYMATTR Value 5µ
SYMBOL e 896 -496 M0
SYMATTR InstName E1
SYMATTR Value 1
SYMBOL res 576 -704 R0
SYMATTR InstName R1
SYMATTR Value 40k
SYMBOL current -256 576 R180
WINDOW 0 24 80 Left 2
WINDOW 3 24 0 Left 2
SYMATTR InstName I3
SYMATTR Value 5µ
SYMBOL e 240 480 M0
SYMATTR InstName E2
SYMATTR Value 1
SYMBOL MinedaLIB\\NMOS_MIN -64 -528 R0
SYMATTR InstName M1
SYMATTR Value2 l=20u w=100u
SYMBOL MinedaLIB\\NMOS_MIN -64 -368 R0
SYMATTR InstName M2
SYMATTR Value2 l=20u w=100u
SYMBOL MinedaLIB\\NMOS_MIN -112 -528 M0
SYMATTR InstName M3
SYMATTR Value2 l=20u w=100u
SYMBOL MinedaLIB\\NMOS_MIN -112 -368 M0
SYMATTR InstName M4
SYMATTR Value2 l=20u w=100u
SYMBOL MinedaLIB\\NMOS_MIN 656 -544 M0
SYMATTR InstName M5
SYMATTR Value2 l=20u w=100u
SYMBOL MinedaLIB\\NMOS_MIN 656 -384 M0
SYMATTR InstName M6
SYMATTR Value2 l=20u w=100u
SYMBOL MinedaLIB\\NMOS_MIN 704 -544 R0
SYMATTR InstName M7
SYMATTR Value2 l=20u w=100u
SYMBOL MinedaLIB\\NMOS_MIN 704 -384 R0
SYMATTR InstName M8
SYMATTR Value2 l=20u w=100u
SYMBOL MinedaLIB\\NMOS_MIN 48 432 R0
SYMATTR InstName M10
SYMATTR Value2 l=20u w=100u
SYMBOL MinedaLIB\\NMOS_MIN 0 432 M0
SYMATTR InstName M11
SYMATTR Value2 l=20u w=100u
TEXT 704 848 Left 4 !;dc V1 0 5 0.5
TEXT 480 880 Left 4 !;ac dec 20 10 100Meg
TEXT 272 920 Left 2 !;.include "C:\\Users\\hayab\\KLayout\\salt\\PTS06\\Technology\\tech\\models\\MinedaPTS06_TT"
TEXT 496 856 Left 2 !;ac dec 10 1 10
TEXT 88 -88 Left 2 !.ac dec 2 0.001 1
TEXT 104 -128 Left 2 !.step param x 2.5 3.5 0.25
TEXT 184 976 Left 2 !;.include "C:\\Users\\hayab\\KLayout\\salt\\OpenRule1um\\tech\\tech\\models\\OR1_mos"
TEXT 176 1040 Left 2 !;.include "C:\\Users\\hayab\\KLayout\\salt\\Mineda2022_6\\Mineda2022_6\\Technology\\tech\\models\\SOI_CMOS"
TEXT -256 104 Left 2 !.lib "%HOMEPATH%\\KLayout\\salt\\ICPS2023_5\\Technology\\tech\\models\\SOI_CMOS"
