Version 4
SHEET 1 880 680
WIRE 16 -128 -176 -128
WIRE 320 -128 192 -128
WIRE 16 -48 16 -128
WIRE 96 -48 16 -48
WIRE 16 -16 16 -48
WIRE 192 -16 192 -128
WIRE 16 32 0 32
WIRE 96 32 96 -48
WIRE 96 32 80 32
WIRE 128 32 96 32
WIRE 208 32 192 32
WIRE 0 80 0 32
WIRE 16 80 0 80
WIRE 208 80 208 32
WIRE 208 80 192 80
WIRE -176 96 -176 -128
WIRE 320 96 320 -128
WIRE 16 128 16 80
WIRE 96 128 16 128
WIRE 16 144 16 128
WIRE 192 144 192 80
WIRE 16 192 0 192
WIRE 96 192 96 128
WIRE 96 192 80 192
WIRE 128 192 96 192
WIRE 208 192 192 192
WIRE 0 240 0 192
WIRE 16 240 0 240
WIRE 208 240 208 192
WIRE 208 240 192 240
WIRE -176 304 -176 176
WIRE 16 304 16 240
WIRE 16 304 -176 304
WIRE 192 304 192 240
WIRE 192 304 16 304
WIRE 320 304 320 176
WIRE 320 304 192 304
WIRE 416 304 320 304
FLAG 416 304 0
FLAG 320 -128 V1
SYMBOL current -176 176 R180
WINDOW 0 24 80 Left 2
WINDOW 3 24 0 Left 2
SYMATTR InstName I1
SYMATTR Value 5µ
SYMBOL voltage 320 80 R0
WINDOW 123 24 44 Left 2
WINDOW 39 0 0 Left 0
SYMATTR Value2 AC 1
SYMATTR InstName V1
SYMATTR Value 0.742
SYMBOL MinedaLIB\\NMOS_MIN 128 32 R0
SYMATTR InstName M1
SYMATTR Value2 l=20u w=100u
SYMBOL MinedaLIB\\NMOS_MIN 128 192 R0
SYMATTR InstName M2
SYMATTR Value2 l=20u w=100u
SYMBOL MinedaLIB\\NMOS_MIN 80 32 M0
SYMATTR InstName M3
SYMATTR Value2 l=20u w=100u
SYMBOL MinedaLIB\\NMOS_MIN 80 192 M0
SYMATTR InstName M4
SYMATTR Value2 l=20u w=100u
TEXT 176 464 Left 4 !;dc V1 0 5 2
TEXT -288 368 Left 4 !;ac dec 20 10 100Meg
TEXT 200 376 Left 2 !;ac dec 10 1 10
TEXT 424 368 Left 2 !.step param x 3 4 0.25
TEXT -152 464 Left 2 !.ac dec 2 0.001 1
TEXT -152 544 Left 2 !;.include "C:\\Users\\hayab\\KLayout\\salt\\OpenRule1um\\tech\\tech\\models\\OR1_mos"
TEXT -160 504 Left 2 !.lib "%HOMEPATH%\\KLayout\\salt\\ICPS2023_5\\Technology\\tech\\models\\SOI_CMOS"
