Version 4
SHEET 1 880 920
WIRE -80 -32 -256 -32
WIRE 208 -32 -80 -32
WIRE 448 -32 208 -32
WIRE 512 -32 448 -32
WIRE -256 48 -256 -32
WIRE -80 48 -80 -32
WIRE -80 224 -80 128
WIRE 64 224 -80 224
WIRE -256 272 -256 128
WIRE -176 272 -256 272
WIRE 16 272 -144 272
WIRE 448 272 448 -32
WIRE -256 304 -256 272
WIRE -80 304 -80 224
WIRE 208 304 208 -32
WIRE -256 352 -272 352
WIRE -176 352 -176 272
WIRE -176 352 -192 352
WIRE -144 352 -144 272
WIRE -144 352 -176 352
WIRE -64 352 -80 352
WIRE 16 352 16 272
WIRE 144 352 16 352
WIRE 224 352 208 352
WIRE -272 400 -272 352
WIRE -256 400 -272 400
WIRE -64 400 -64 352
WIRE -64 400 -80 400
WIRE 224 400 224 352
WIRE 224 400 208 400
WIRE -80 464 -80 400
WIRE 208 464 208 400
WIRE -80 512 -96 512
WIRE 64 512 64 224
WIRE 64 512 -16 512
WIRE 144 512 64 512
WIRE 224 512 208 512
WIRE -96 560 -96 512
WIRE -80 560 -96 560
WIRE 224 560 224 512
WIRE 224 560 208 560
WIRE -256 640 -256 400
WIRE -96 640 -96 560
WIRE -96 640 -256 640
WIRE 208 640 208 560
WIRE 208 640 -96 640
WIRE 448 640 448 352
WIRE 448 640 208 640
WIRE 496 640 448 640
FLAG 496 640 0
FLAG 512 -32 V1
SYMBOL current -256 48 R0
SYMATTR InstName I1
SYMATTR Value 5µ
SYMBOL current -80 48 R0
SYMATTR InstName I2
SYMATTR Value 5µ
SYMBOL voltage 448 256 R0
WINDOW 123 24 124 Left 2
WINDOW 39 0 0 Left 0
WINDOW 3 24 44 Left 2
SYMATTR Value2 AC 1
SYMATTR Value 0.604
SYMATTR InstName V1
SYMBOL MinedaLIB\\NMOS_MIN 144 352 R0
SYMATTR InstName M1
SYMATTR Value2 l=20u w=100u
SYMBOL MinedaLIB\\NMOS_MIN 144 512 R0
SYMATTR InstName M2
SYMATTR Value2 l=50u w=50u
SYMBOL MinedaLIB\\NMOS_MIN -192 352 M0
SYMATTR InstName M3
SYMATTR Value2 l=20u w=25u
SYMBOL MinedaLIB\\NMOS_MIN -16 512 M0
SYMATTR InstName M4
SYMATTR Value2 l=50u w=50u
SYMBOL MinedaLIB\\NMOS_MIN -144 352 R0
SYMATTR InstName M5
SYMATTR Value2 l=20u w=100u
TEXT -280 760 Left 2 !;.include "C:\\Users\\hayab\\KLayout\\salt\\PTS06\\Technology\\tech\\models\\MinedaPTS06_TT"
TEXT -272 720 Left 2 !.ac dec 2 0.001 10
TEXT 16 704 Left 2 !.step param x 3 4 0.25
TEXT -280 816 Left 2 !;.include "C:\\Users\\hayab\\KLayout\\salt\\OpenRule1um\\tech\\tech\\models\\OR1_mos"
TEXT -288 856 Left 2 !.lib "%HOMEPATH%\\KLayout\\salt\\ICPS2023_5\\Technology\\tech\\models\\SOI_CMOS"
