Version 4
SHEET 1 880 680
WIRE -160 -272 -352 -272
WIRE 144 -272 16 -272
WIRE -160 -192 -160 -272
WIRE -80 -192 -160 -192
WIRE -160 -160 -160 -192
WIRE 16 -160 16 -272
WIRE -160 -112 -176 -112
WIRE -80 -112 -80 -192
WIRE -80 -112 -96 -112
WIRE -48 -112 -80 -112
WIRE 32 -112 16 -112
WIRE -176 -64 -176 -112
WIRE -160 -64 -176 -64
WIRE 32 -64 32 -112
WIRE 32 -64 16 -64
WIRE -352 -48 -352 -272
WIRE 144 -48 144 -272
WIRE 16 -32 16 -64
WIRE 16 -32 -80 -32
WIRE -160 0 -160 -64
WIRE 16 0 16 -32
WIRE -160 48 -176 48
WIRE -80 48 -80 -32
WIRE -80 48 -96 48
WIRE -48 48 -80 48
WIRE 32 48 16 48
WIRE -176 96 -176 48
WIRE -160 96 -176 96
WIRE 32 96 32 48
WIRE 32 96 16 96
WIRE -352 160 -352 32
WIRE -160 160 -160 96
WIRE -160 160 -352 160
WIRE 16 160 16 96
WIRE 16 160 -160 160
WIRE 144 160 144 32
WIRE 144 160 16 160
WIRE 240 160 144 160
FLAG 144 -272 V1
FLAG 240 160 0
SYMBOL current -352 32 R180
WINDOW 0 24 80 Left 2
WINDOW 3 24 0 Left 2
SYMATTR InstName I1
SYMATTR Value 5µ
SYMBOL voltage 144 -64 R0
WINDOW 123 24 124 Left 2
WINDOW 39 0 0 Left 0
WINDOW 3 24 44 Left 2
SYMATTR Value2 AC 1
SYMATTR Value 0.927
SYMATTR InstName V1
SYMBOL MinedaLIB\\NMOS_MIN -48 -112 R0
SYMATTR InstName M1
SYMATTR Value2 l=20u w=100u
SYMBOL MinedaLIB\\NMOS_MIN -48 48 R0
SYMATTR InstName M2
SYMATTR Value2 l=50u w=50u
SYMBOL MinedaLIB\\NMOS_MIN -96 -112 M0
SYMATTR InstName M3
SYMATTR Value2 l=20u w=100u
SYMBOL MinedaLIB\\NMOS_MIN -96 48 M0
SYMATTR InstName M4
SYMATTR Value2 l=50u w=50u
TEXT -320 256 Left 2 !;.include "C:\\Users\\hayab\\KLayout\\salt\\PTS06\\Technology\\tech\\models\\MinedaPTS06_TT"
TEXT 104 328 Left 2 !.ac dec 2 0.001 1
TEXT 120 288 Left 2 !.step param x 3 4 0.25
TEXT -296 424 Left 2 !;.include "C:\\Users\\hayab\\KLayout\\salt\\OpenRule1um\\tech\\tech\\models\\OR1_mos"
TEXT -304 392 Left 2 !.lib "%HOMEPATH%\\KLayout\\salt\\ICPS2023_5\\Technology\\tech\\models\\SOI_CMOS"
