Version 4
SHEET 1 1116 784
WIRE 272 96 80 96
WIRE 576 96 448 96
WIRE 272 176 272 96
WIRE 352 176 272 176
WIRE 272 208 272 176
WIRE 448 208 448 96
WIRE 272 256 256 256
WIRE 352 256 352 176
WIRE 352 256 336 256
WIRE 384 256 352 256
WIRE 464 256 448 256
WIRE 256 304 256 256
WIRE 272 304 256 304
WIRE 464 304 464 256
WIRE 464 304 448 304
WIRE 80 320 80 96
WIRE 576 320 576 96
WIRE 272 352 272 304
WIRE 352 352 272 352
WIRE 272 368 272 352
WIRE 448 368 448 304
WIRE 272 416 256 416
WIRE 352 416 352 352
WIRE 352 416 336 416
WIRE 384 416 352 416
WIRE 464 416 448 416
WIRE 256 464 256 416
WIRE 272 464 256 464
WIRE 464 464 464 416
WIRE 464 464 448 464
WIRE 80 528 80 400
WIRE 272 528 272 464
WIRE 272 528 80 528
WIRE 448 528 448 464
WIRE 448 528 272 528
WIRE 576 528 576 400
WIRE 576 528 448 528
WIRE 672 528 576 528
FLAG 672 528 0
FLAG 576 96 V1
SYMBOL current 80 400 R180
WINDOW 0 24 80 Left 2
WINDOW 3 24 0 Left 2
SYMATTR InstName I1
SYMATTR Value 5µ
SYMBOL voltage 576 304 R0
WINDOW 123 24 44 Left 2
WINDOW 39 0 0 Left 0
SYMATTR Value2 AC 1
SYMATTR InstName V1
SYMATTR Value 1.71
SYMBOL MinedaLIB-Openrule1um\\NMOS_MIN 384 256 R0
SYMATTR InstName M1
SYMATTR Value2 l=2u w=10u
SYMBOL MinedaLIB-Openrule1um\\NMOS_MIN 384 416 R0
SYMATTR InstName M2
SYMATTR Value2 l=2u w=10u
SYMBOL MinedaLIB-Openrule1um\\NMOS_MIN 336 256 M0
SYMATTR InstName M3
SYMATTR Value2 l=2u w=10u
SYMBOL MinedaLIB-Openrule1um\\NMOS_MIN 336 416 M0
SYMATTR InstName M4
SYMATTR Value2 l=2u w=10u
TEXT 432 688 Left 4 !;dc V1 0 5 2
TEXT -32 592 Left 4 !;ac dec 20 10 100Meg
TEXT 456 600 Left 2 !;ac dec 10 1 10
TEXT 680 592 Left 2 !.step param x 3 5 0.25
TEXT 104 688 Left 2 !.ac dec 2 0.001 1
TEXT 104 768 Left 2 !.lib "%HOMEPATH%\\KLayout\\salt\\OpenRule1um\\tech\\tech\\models\\OR1_mos"
TEXT 96 728 Left 2 !;.lib "%HOMEPATH%\\KLayout\\salt\\ICPS2023_5\\Technology\\tech\\models\\SOI_CMOS"
