Version 4
SHEET 1 880 840
WIRE -144 -176 -336 -176
WIRE 160 -176 32 -176
WIRE -144 -96 -144 -176
WIRE -64 -96 -144 -96
WIRE -144 -64 -144 -96
WIRE 32 -64 32 -176
WIRE -144 -16 -160 -16
WIRE -64 -16 -64 -96
WIRE -64 -16 -80 -16
WIRE -32 -16 -64 -16
WIRE 48 -16 32 -16
WIRE -160 32 -160 -16
WIRE -144 32 -160 32
WIRE 48 32 48 -16
WIRE 48 32 32 32
WIRE -336 48 -336 -176
WIRE 160 48 160 -176
WIRE 32 64 32 32
WIRE 32 64 -64 64
WIRE -144 96 -144 32
WIRE 32 96 32 64
WIRE -144 144 -160 144
WIRE -64 144 -64 64
WIRE -64 144 -80 144
WIRE -32 144 -64 144
WIRE 48 144 32 144
WIRE -160 192 -160 144
WIRE -144 192 -160 192
WIRE 48 192 48 144
WIRE 48 192 32 192
WIRE -336 256 -336 128
WIRE -144 256 -144 192
WIRE -144 256 -336 256
WIRE 32 256 32 192
WIRE 32 256 -144 256
WIRE 160 256 160 128
WIRE 160 256 32 256
WIRE 256 256 160 256
FLAG 160 -176 V1
FLAG 256 256 0
SYMBOL current -336 128 R180
WINDOW 0 24 80 Left 2
WINDOW 3 24 0 Left 2
SYMATTR InstName I1
SYMATTR Value 5µ
SYMBOL voltage 160 32 R0
WINDOW 123 24 124 Left 2
WINDOW 39 0 0 Left 0
WINDOW 3 24 44 Left 2
SYMATTR Value2 AC 1
SYMATTR Value 1.912
SYMATTR InstName V1
SYMBOL MinedaLIB-Openrule1um\\NMOS_MIN -32 -16 R0
SYMATTR InstName M1
SYMATTR Value2 l=2u w=10u
SYMBOL MinedaLIB-Openrule1um\\NMOS_MIN -32 144 R0
SYMATTR InstName M3
SYMATTR Value2 l=5u w=5u
SYMBOL MinedaLIB-Openrule1um\\NMOS_MIN -80 -16 M0
SYMATTR InstName M4
SYMATTR Value2 l=2u w=10u
SYMBOL MinedaLIB-Openrule1um\\NMOS_MIN -80 144 M0
SYMATTR InstName M5
SYMATTR Value2 l=5u w=5u
TEXT -256 824 Left 2 !;.include "C:\\Users\\hayab\\KLayout\\salt\\PTS06\\Technology\\tech\\models\\MinedaPTS06_TT"
TEXT 120 424 Left 2 !.ac dec 2 0.001 1
TEXT 136 384 Left 2 !.step param x 3 5 0.25
TEXT -280 520 Left 2 !.lib "%HOMEPATH%\\KLayout\\salt\\OpenRule1um\\tech\\tech\\models\\OR1_mos"
TEXT -272 776 Left 2 !;.lib "%HOMEPATH%\\KLayout\\salt\\ICPS2023_5\\Technology\\tech\\models\\SOI_CMOS"
