Version 4
SHEET 1 1396 1200
WIRE 528 -624 336 -624
WIRE 832 -624 704 -624
WIRE -240 -608 -432 -608
WIRE 64 -608 -64 -608
WIRE 528 -608 528 -624
WIRE 624 -608 528 -608
WIRE -240 -528 -240 -608
WIRE -160 -528 -240 -528
WIRE 528 -512 528 -528
WIRE 608 -512 528 -512
WIRE 704 -512 704 -624
WIRE -240 -496 -240 -528
WIRE -64 -496 -64 -608
WIRE 528 -464 512 -464
WIRE 624 -464 624 -608
WIRE 624 -464 592 -464
WIRE 640 -464 624 -464
WIRE 720 -464 704 -464
WIRE -240 -448 -256 -448
WIRE -160 -448 -160 -528
WIRE -160 -448 -176 -448
WIRE -128 -448 -160 -448
WIRE -48 -448 -64 -448
WIRE 512 -416 512 -464
WIRE 528 -416 512 -416
WIRE 720 -416 720 -464
WIRE 720 -416 704 -416
WIRE -256 -400 -256 -448
WIRE -240 -400 -256 -400
WIRE -48 -400 -48 -448
WIRE -48 -400 -64 -400
WIRE 336 -400 336 -624
WIRE 832 -400 832 -624
WIRE -432 -384 -432 -608
WIRE 64 -384 64 -608
WIRE 528 -352 528 -416
WIRE 704 -352 704 -416
WIRE -240 -336 -240 -400
WIRE -64 -336 -64 -400
WIRE 896 -336 880 -336
WIRE 528 -304 512 -304
WIRE 608 -304 608 -512
WIRE 608 -304 592 -304
WIRE 640 -304 608 -304
WIRE 720 -304 704 -304
WIRE -240 -288 -256 -288
WIRE -160 -288 -160 -448
WIRE -160 -288 -176 -288
WIRE -128 -288 -160 -288
WIRE -48 -288 -64 -288
WIRE 832 -288 832 -320
WIRE 896 -288 896 -336
WIRE 896 -288 832 -288
WIRE 512 -256 512 -304
WIRE 528 -256 512 -256
WIRE 720 -256 720 -304
WIRE 720 -256 704 -256
WIRE -256 -240 -256 -288
WIRE -240 -240 -256 -240
WIRE -48 -240 -48 -288
WIRE -48 -240 -64 -240
WIRE 336 -192 336 -320
WIRE 528 -192 528 -256
WIRE 528 -192 336 -192
WIRE 704 -192 704 -256
WIRE 704 -192 528 -192
WIRE 832 -192 832 -288
WIRE 832 -192 704 -192
WIRE 928 -192 832 -192
WIRE -432 -176 -432 -304
WIRE -240 -176 -240 -240
WIRE -240 -176 -432 -176
WIRE -64 -176 -64 -240
WIRE -64 -176 -240 -176
WIRE 64 -176 64 -304
WIRE 64 -176 -64 -176
WIRE 160 -176 64 -176
WIRE -128 352 -320 352
WIRE 176 352 48 352
WIRE -128 432 -128 352
WIRE -48 432 -128 432
WIRE -128 464 -128 432
WIRE 48 464 48 352
WIRE -128 512 -144 512
WIRE -48 512 -48 432
WIRE -48 512 -64 512
WIRE -16 512 -48 512
WIRE 64 512 48 512
WIRE -144 560 -144 512
WIRE -128 560 -144 560
WIRE 64 560 64 512
WIRE 64 560 48 560
WIRE -320 576 -320 352
WIRE 176 576 176 352
WIRE 240 640 224 640
WIRE 176 688 176 656
WIRE 240 688 240 640
WIRE 240 688 176 688
WIRE -320 784 -320 656
WIRE -128 784 -128 560
WIRE -128 784 -320 784
WIRE 48 784 48 560
WIRE 48 784 -128 784
WIRE 176 784 176 688
WIRE 176 784 48 784
WIRE 272 784 176 784
FLAG 64 -608 V1
FLAG 160 -176 0
FLAG 928 -192 0
FLAG 880 -384 V1
FLAG 272 784 0
FLAG 224 592 V1
SYMBOL current -432 -304 R180
WINDOW 0 24 80 Left 2
WINDOW 3 24 0 Left 2
SYMATTR InstName I1
SYMATTR Value 5µ
SYMBOL voltage 64 -400 R0
WINDOW 123 24 124 Left 2
WINDOW 39 0 0 Left 0
WINDOW 3 24 44 Left 2
SYMATTR Value2 AC 1
SYMATTR Value {x}
SYMATTR InstName V1
SYMBOL current 336 -320 R180
WINDOW 0 24 80 Left 2
WINDOW 3 24 0 Left 2
SYMATTR InstName I2
SYMATTR Value 5µ
SYMBOL e 832 -416 M0
SYMATTR InstName E1
SYMATTR Value 1
SYMBOL res 512 -624 R0
SYMATTR InstName R1
SYMATTR Value 40k
SYMBOL current -320 656 R180
WINDOW 0 24 80 Left 2
WINDOW 3 24 0 Left 2
SYMATTR InstName I3
SYMATTR Value 5µ
SYMBOL e 176 560 M0
SYMATTR InstName E2
SYMATTR Value 1
SYMBOL MinedaLIB-Openrule1um\\NMOS_MIN 640 -464 R0
SYMATTR InstName M1
SYMATTR Value2 l=2u w=10u
SYMBOL MinedaLIB-Openrule1um\\NMOS_MIN 640 -304 R0
SYMATTR InstName M3
SYMATTR Value2 l=2u w=10u
SYMBOL MinedaLIB-Openrule1um\\NMOS_MIN -128 -448 R0
SYMATTR InstName M4
SYMATTR Value2 l=2u w=10u
SYMBOL MinedaLIB-Openrule1um\\NMOS_MIN -128 -288 R0
SYMATTR InstName M5
SYMATTR Value2 l=2u w=10u
SYMBOL MinedaLIB-Openrule1um\\NMOS_MIN -16 512 R0
SYMATTR InstName M6
SYMATTR Value2 l=2u w=10u
SYMBOL MinedaLIB-Openrule1um\\NMOS_MIN 592 -464 M0
SYMATTR InstName M7
SYMATTR Value2 l=2u w=10u
SYMBOL MinedaLIB-Openrule1um\\NMOS_MIN 592 -304 M0
SYMATTR InstName M8
SYMATTR Value2 l=2u w=10u
SYMBOL MinedaLIB-Openrule1um\\NMOS_MIN -176 -448 M0
SYMATTR InstName M9
SYMATTR Value2 l=2u w=10u
SYMBOL MinedaLIB-Openrule1um\\NMOS_MIN -176 -288 M0
SYMATTR InstName M10
SYMATTR Value2 l=2u w=10u
SYMBOL MinedaLIB-Openrule1um\\NMOS_MIN -64 512 M0
SYMATTR InstName M11
SYMATTR Value2 l=2u w=10u
TEXT 640 928 Left 4 !;dc V1 0 5 0.5
TEXT 416 960 Left 4 !;ac dec 20 10 100Meg
TEXT 208 1000 Left 2 !;.include "C:\\Users\\hayab\\KLayout\\salt\\PTS06\\Technology\\tech\\models\\MinedaPTS06_TT"
TEXT 432 936 Left 2 !;ac dec 10 1 10
TEXT 24 -8 Left 2 !.ac dec 2 0.001 1
TEXT 40 -48 Left 2 !.step param x 3 4 0.25
TEXT -16 72 Left 2 !.lib "%HOMEPATH%\\KLayout\\salt\\OpenRule1um\\tech\\tech\\models\\OR1_mos"
TEXT 112 1120 Left 2 !;.include "C:\\Users\\hayab\\KLayout\\salt\\Mineda2022_6\\Mineda2022_6\\Technology\\tech\\models\\SOI_CMOS"
TEXT 104 1184 Left 2 !;.lib "%HOMEPATH%\\KLayout\\salt\\ICPS2023_5\\Technology\\tech\\models\\SOI_CMOS"
