Version 4
SHEET 1 880 912
WIRE -192 -272 -368 -272
WIRE 96 -272 -192 -272
WIRE 336 -272 96 -272
WIRE 400 -272 336 -272
WIRE -368 -192 -368 -272
WIRE -192 -192 -192 -272
WIRE -192 -16 -192 -112
WIRE -48 -16 -192 -16
WIRE -368 32 -368 -112
WIRE -288 32 -368 32
WIRE -96 32 -256 32
WIRE 336 32 336 -272
WIRE -368 64 -368 32
WIRE -192 64 -192 -16
WIRE 96 64 96 -272
WIRE -368 112 -384 112
WIRE -288 112 -288 32
WIRE -288 112 -304 112
WIRE -256 112 -256 32
WIRE -256 112 -288 112
WIRE -176 112 -192 112
WIRE -96 112 -96 32
WIRE 32 112 -96 112
WIRE 112 112 96 112
WIRE -384 160 -384 112
WIRE -368 160 -384 160
WIRE -176 160 -176 112
WIRE -176 160 -192 160
WIRE 112 160 112 112
WIRE 112 160 96 160
WIRE -192 224 -192 160
WIRE 96 224 96 160
WIRE -192 272 -208 272
WIRE -48 272 -48 -16
WIRE -48 272 -128 272
WIRE 32 272 -48 272
WIRE 112 272 96 272
WIRE -208 320 -208 272
WIRE -192 320 -208 320
WIRE 112 320 112 272
WIRE 112 320 96 320
WIRE -368 400 -368 160
WIRE -208 400 -208 320
WIRE -208 400 -368 400
WIRE 96 400 96 320
WIRE 96 400 -208 400
WIRE 336 400 336 112
WIRE 336 400 96 400
WIRE 384 400 336 400
FLAG 384 400 0
FLAG 400 -272 V1
SYMBOL current -368 -192 R0
SYMATTR InstName I1
SYMATTR Value 5µ
SYMBOL current -192 -192 R0
SYMATTR InstName I2
SYMATTR Value 5µ
SYMBOL voltage 336 16 R0
WINDOW 123 24 124 Left 2
WINDOW 39 0 0 Left 0
WINDOW 3 24 44 Left 2
SYMATTR Value2 AC 1
SYMATTR Value 1.019
SYMATTR InstName V1
SYMBOL MinedaLIB-Openrule1um\\NMOS_MIN 32 112 R0
SYMATTR InstName M1
SYMATTR Value2 l=2u w=10u
SYMBOL MinedaLIB-Openrule1um\\NMOS_MIN 32 272 R0
SYMATTR InstName M2
SYMATTR Value2 l=5u w=5u
SYMBOL MinedaLIB-Openrule1um\\NMOS_MIN -256 112 R0
SYMATTR InstName M3
SYMATTR Value2 l=2u w=10u
SYMBOL MinedaLIB-Openrule1um\\NMOS_MIN -304 112 M0
SYMATTR InstName M4
SYMATTR Value2 l=2u w=2.5u
SYMBOL MinedaLIB-Openrule1um\\NMOS_MIN -128 272 M0
SYMATTR InstName M5
SYMATTR Value2 l=5u w=5u
TEXT -376 864 Left 2 !;.include "C:\\Users\\hayab\\KLayout\\salt\\PTS06\\Technology\\tech\\models\\MinedaPTS06_TT"
TEXT -384 480 Left 2 !.ac dec 2 0.001 10
TEXT -96 464 Left 2 !.step param x 3 4 0.25
TEXT -392 576 Left 2 !.lib "%HOMEPATH%\\KLayout\\salt\\OpenRule1um\\tech\\tech\\models\\OR1_mos"
TEXT -360 896 Left 2 !;.lib "%HOMEPATH%\\KLayout\\salt\\ICPS2023_5\\Technology\\tech\\models\\SOI_CMOS"
