Version 4
SHEET 1 1256 984
WIRE 128 -96 -80 -96
WIRE 624 -96 128 -96
WIRE 784 -96 624 -96
WIRE 960 -96 784 -96
WIRE 1104 -96 960 -96
WIRE -80 -48 -80 -96
WIRE -80 -48 -112 -48
WIRE 128 -48 128 -96
WIRE 160 -48 128 -48
WIRE 624 -48 624 -96
WIRE 656 -48 624 -48
WIRE 784 -48 784 -96
WIRE 816 -48 784 -48
WIRE 960 -48 960 -96
WIRE 976 -48 960 -48
WIRE -112 0 -112 -48
WIRE -80 0 -112 0
WIRE 16 0 -16 0
WIRE 64 0 16 0
WIRE 160 0 160 -48
WIRE 160 0 128 0
WIRE 656 0 656 -48
WIRE 656 0 624 0
WIRE 816 0 816 -48
WIRE 816 0 784 0
WIRE 976 0 976 -48
WIRE 976 0 960 0
WIRE 16 96 16 0
WIRE 560 96 560 0
WIRE 560 96 16 96
WIRE 720 96 720 0
WIRE 720 96 560 96
WIRE 896 96 896 0
WIRE 896 96 720 96
WIRE 784 112 784 48
WIRE 784 112 336 112
WIRE 624 144 624 48
WIRE 624 144 464 144
WIRE -80 160 -80 48
WIRE 128 160 128 48
WIRE 624 160 624 144
WIRE 784 160 784 112
WIRE -112 208 -112 0
WIRE -80 208 -112 208
WIRE 16 208 16 96
WIRE 16 208 -16 208
WIRE 64 208 16 208
WIRE 160 208 160 0
WIRE 160 208 128 208
WIRE 560 208 560 96
WIRE 656 208 656 0
WIRE 656 208 624 208
WIRE 720 208 720 96
WIRE 816 208 816 0
WIRE 816 208 784 208
WIRE 336 320 336 112
WIRE 464 320 464 144
WIRE -80 368 -80 256
WIRE 16 368 16 208
WIRE 16 368 -80 368
WIRE 416 368 336 368
WIRE 464 368 416 368
WIRE 784 384 784 256
WIRE 832 384 784 384
WIRE 960 384 960 48
WIRE 960 384 928 384
WIRE 1104 384 960 384
WIRE 464 416 336 416
WIRE 128 480 128 256
WIRE 224 480 128 480
WIRE 128 544 128 480
WIRE 336 544 336 416
WIRE -80 560 -80 368
WIRE 128 592 96 592
WIRE 224 592 224 480
WIRE 224 592 192 592
WIRE 272 592 224 592
WIRE 368 592 336 592
WIRE 960 592 960 384
WIRE 784 640 784 384
WIRE 896 640 784 640
WIRE 992 640 960 640
WIRE 624 688 624 256
WIRE 704 688 624 688
WIRE 992 688 992 640
WIRE 992 688 960 688
WIRE 624 720 624 688
WIRE 784 720 784 640
WIRE 128 752 128 640
WIRE 336 752 336 640
WIRE 624 768 608 768
WIRE 704 768 704 688
WIRE 704 768 688 768
WIRE 720 768 704 768
WIRE 800 768 784 768
WIRE 128 800 112 800
WIRE 224 800 224 592
WIRE 224 800 192 800
WIRE 272 800 224 800
WIRE 352 800 336 800
WIRE 96 816 96 592
WIRE 112 816 112 800
WIRE 112 816 96 816
WIRE 352 816 352 800
WIRE 368 816 368 592
WIRE 368 816 352 816
WIRE 608 816 608 768
WIRE 624 816 608 816
WIRE 800 816 800 768
WIRE 800 816 784 816
WIRE -80 912 -80 640
WIRE 112 912 112 816
WIRE 112 912 -80 912
WIRE 128 912 128 848
WIRE 128 912 112 912
WIRE 336 912 336 848
WIRE 336 912 128 912
WIRE 352 912 352 816
WIRE 352 912 336 912
WIRE 416 912 416 368
WIRE 416 912 352 912
WIRE 624 912 624 816
WIRE 624 912 416 912
WIRE 784 912 784 816
WIRE 784 912 624 912
WIRE 960 912 960 688
WIRE 960 912 784 912
WIRE 1104 912 960 912
FLAG 1104 -96 Vdd
IOPIN 1104 -96 In
FLAG 1104 912 Vss
IOPIN 1104 912 In
FLAG 1104 384 Voutput
IOPIN 1104 384 Out
FLAG 272 368 In+
IOPIN 272 368 In
FLAG 528 368 In-
IOPIN 528 368 In
FLAG -80 368 Ibias1
IOPIN -80 368 In
SYMBOL MinedaLIB/NMOS_MIN 272 368 R0
SYMATTR InstName M5
SYMATTR Value2 l=2u w=40u
SYMBOL MinedaLIB/NMOS_MIN 528 368 M0
SYMATTR InstName M6
SYMATTR Value2 l=2u w=40u
SYMBOL MinedaLIB/PMOS_MIN 560 208 R0
SYMATTR InstName M12
SYMATTR Value2 l=2u w=100u
SYMBOL MinedaLIB/PMOS_MIN 560 0 R0
SYMATTR InstName M11
SYMATTR Value2 l=5u w=30u
SYMBOL MinedaLIB/PMOS_MIN 720 0 R0
SYMATTR InstName M13
SYMATTR Value2 l=5u w=30u
SYMBOL MinedaLIB/PMOS_MIN 720 208 R0
SYMATTR InstName M14
SYMATTR Value2 l=2u w=100u
SYMBOL MinedaLIB/PMOS_MIN 64 0 R0
SYMATTR InstName M3
SYMATTR Value2 l=5u w=30u
SYMBOL MinedaLIB/PMOS_MIN 64 208 R0
SYMATTR InstName M4
SYMATTR Value2 l=2u w=100u
SYMBOL MinedaLIB/PMOS_MIN -16 0 M0
SYMATTR InstName M1
SYMATTR Value2 l=5u w=30u
SYMBOL MinedaLIB/PMOS_MIN -16 208 M0
SYMATTR InstName M2
SYMATTR Value2 l=2u w=100u
SYMBOL MinedaLIB/NMOS_MIN 272 592 R0
SYMATTR InstName M9
SYMATTR Value2 l=2u w=100u
SYMBOL MinedaLIB/NMOS_MIN 272 800 R0
SYMATTR InstName M10
SYMATTR Value2 l=5u w=10u
SYMBOL MinedaLIB/NMOS_MIN 192 592 M0
SYMATTR InstName M7
SYMATTR Value2 l=2u w=100u
SYMBOL MinedaLIB/NMOS_MIN 192 800 M0
SYMATTR InstName M8
SYMATTR Value2 l=5u w=10u
SYMBOL MinedaLIB/PMOS_MIN 896 0 R0
WINDOW 123 80 44 Left 2
SYMATTR InstName M17
SYMATTR Value2 l=5u w=90u
SYMBOL MinedaLIB/NMOS_MIN 688 768 M0
SYMATTR InstName M15
SYMATTR Value2 l=3u w=20u
SYMBOL MinedaLIB/NMOS_MIN 720 768 R0
SYMATTR InstName M16
SYMATTR Value2 l=3u w=20u
SYMBOL MinedaLIB/NMOS_MIN 896 640 R0
WINDOW 123 81 44 Left 2
SYMATTR InstName M18
SYMATTR Value2 l=1u w=25u
SYMBOL MinedaLIB/CAP_MIN 928 384 R90
WINDOW 0 -22 48 VBottom 2
WINDOW 3 22 48 VTop 2
SYMATTR InstName C1
SYMATTR Value 1.04p
SYMBOL res -96 544 R0
SYMATTR InstName R1
SYMATTR Value 178k
