Version 4
SHEET 1 1124 1168
WIRE 800 176 624 176
WIRE 800 192 800 176
WIRE 320 224 80 224
WIRE 624 224 624 176
WIRE 624 224 560 224
WIRE 80 240 80 224
WIRE 320 272 304 272
WIRE 704 304 560 304
WIRE 800 304 800 272
WIRE 928 304 800 304
WIRE 800 320 800 304
WIRE 320 336 240 336
WIRE 928 336 928 304
WIRE 624 384 560 384
WIRE 624 432 624 384
WIRE 624 432 240 432
WIRE 800 432 800 400
WIRE 800 432 624 432
WIRE 176 560 112 560
WIRE 304 560 304 272
WIRE 304 560 272 560
WIRE 336 560 304 560
WIRE 464 560 432 560
WIRE 544 560 464 560
WIRE 704 560 704 304
WIRE 704 560 624 560
WIRE 704 576 704 560
WIRE 784 576 704 576
WIRE 704 592 704 576
WIRE 784 592 784 576
WIRE 112 624 112 560
WIRE 464 672 464 560
WIRE 704 704 704 688
WIRE 784 704 784 688
WIRE 784 704 704 704
WIRE 704 720 704 704
WIRE 464 832 464 768
WIRE 464 960 464 912
FLAG 80 240 0
FLAG 928 336 0
FLAG 112 624 0
FLAG 464 960 0
FLAG 704 720 0
SYMBOL Opamp3 432 304 R0
SYMATTR InstName X1
SYMBOL MinedaLIB/RES_MIN 240 336 R0
WINDOW 3 12 73 Left 2
SYMATTR Value 200k
SYMATTR InstName R1
SYMBOL voltage 800 176 R0
SYMATTR InstName V3
SYMATTR Value 2.5
SYMBOL voltage 800 304 R0
SYMATTR InstName V4
SYMATTR Value 2.5
SYMBOL MinedaLIB/RES_MIN 432 560 R90
WINDOW 0 -16 48 VBottom 2
WINDOW 3 16 48 VTop 2
SYMATTR InstName R3
SYMATTR Value 9k
SYMBOL MinedaLIB/RES_MIN 272 560 R90
WINDOW 0 -16 48 VBottom 2
WINDOW 3 16 48 VTop 2
SYMATTR InstName R4
SYMATTR Value 1k
SYMBOL MinedaLIB/CAP_MIN 464 672 R0
SYMATTR InstName C3
SYMATTR Value 1
SYMBOL voltage 464 816 R0
SYMATTR InstName V1
SYMATTR Value ""
SYMATTR Value2 AC 1
SYMBOL ind2 640 544 R90
WINDOW 0 4 56 VBottom 2
WINDOW 3 32 56 VTop 2
SYMATTR InstName L2
SYMATTR Value 1Meg
SYMBOL MinedaLIB/RES_MIN 704 688 R180
WINDOW 0 32 48 Left 2
WINDOW 3 32 0 Left 2
SYMATTR InstName R2
SYMATTR Value 100k
SYMBOL MinedaLIB/CAP_MIN 784 592 R0
SYMATTR InstName C2
SYMATTR Value 20p
TEXT 472 1072 Left 2 !.ac dec 10 1 1G
TEXT 56 1016 Left 2 !.include "C:\\Users\\hayab\\KLayout\\salt\\PTS06\\Technology\\tech\\models\\MinedaPTS06_TT"
TEXT 744 960 Left 2 ;.op
